14

O        -0.511556654142      -1.344339950876      -0.244627614066
C        -1.439634252738       0.803078813620      -0.285131948278
C        -1.280541800867      -0.450369004108       0.267673016616
C         1.258574531827      -0.920531502710       0.173082158264
C         1.362396943926       0.393233770820      -0.305232452136
C         0.666228170303       1.408738570863       0.317393472134
H        -1.206715163558       0.965718194075      -1.329305954905
H        -2.103964283815       1.522216602870       0.184815014764
H        -1.653261744371      -0.615827976031       1.291659506798
H         1.165249876597      -1.094219461301       1.239129938651
H         1.728992851883      -1.730907394434      -0.368878112727
H         1.668656772408       0.533133044389      -1.338737114237
H         0.632969530719       2.405337586754      -0.109173961512
H         0.450058231975       1.362071409256       1.378135290970
