14

O        -0.416659270710      -1.319303754380      -0.234618070329
C        -1.302231263692       0.835838068102      -0.265803741391
C        -1.208353004335      -0.427097020538       0.278653083082
C         1.134824659135      -0.955733513552       0.151442791319
C         1.295644719629       0.379148854099      -0.299590260678
C         0.526324851514       1.370180854315       0.291555360672
H        -1.118039817790       0.971454970374      -1.325493774525
H        -1.953685419074       1.571631014350       0.198283073818
H        -1.543740721856      -0.581427880156       1.314713533992
H         1.124541382985      -1.131757306507       1.228289693257
H         1.657104259416      -1.742820972168      -0.383970563637
H         1.592511862041       0.517917221946      -1.336265571186
H         0.508487653596       2.369855933770      -0.132001807562
H         0.347195159874       1.354081046281       1.362516454852
