14

O        -0.594591864645      -1.366246622810      -0.253385964836
C        -1.559861868154       0.774414465949      -0.302044129305
C        -1.343706997832      -0.470731989731       0.258065458459
C         1.366855670433      -0.889729743224       0.192016604341
C         1.420805140185       0.405558072951      -0.310169369661
C         0.788643574243       1.442476572842       0.340001819664
H        -1.284306091105       0.960698514813      -1.332641612737
H        -2.235458290463       1.478978992825       0.173030463091
H        -1.749092639072      -0.645928059922       1.271487233004
H         1.200869808508      -1.061373846746       1.248615153372
H         1.791895370292      -1.720483013916      -0.355672218181
H         1.735283568979       0.546446889027      -1.340899714407
H         0.741891173202       2.436384033115      -0.089199596219
H         0.540063420063       1.369062976859       1.391801772574
