14

O        -0.475970135355      -1.334951377190      -0.240874035164
C        -1.388108131846       0.815363534051      -0.277883870695
C        -1.253471002168      -0.441642010269       0.271790541541
C         1.212168329567      -0.933732256776       0.164967395659
C         1.337364859815       0.387951927049      -0.303116630339
C         0.613764425757       1.394279427158       0.307704180336
H        -1.173461908895       0.967869485187      -1.327876387263
H        -2.047609709537       1.540747007175       0.189865536909
H        -1.612191360928      -0.602927940078       1.300304766996
H         1.149984191492      -1.108296153254       1.235064846628
H         1.702034629708      -1.735374986084      -0.374537781819
H         1.640102431021       0.527427110973      -1.337810285593
H         0.586288826798       2.392031966885      -0.117734403781
H         0.411484579937       1.359075023141       1.372278227426
