14

O        -0.452245789497      -1.328692328066      -0.238371649230
C        -1.353757384584       0.823553347672      -0.273051818974
C        -1.235423803035      -0.435824014377       0.274535558158
C         1.181230861394      -0.942532759486       0.159557553923
C         1.320676803740       0.384430697869      -0.301706082475
C         0.578788596060       1.384639998021       0.301244652470
H        -1.151293072453       0.969303679262      -1.326923342168
H        -2.010039993352       1.553100610045       0.193232551673
H        -1.584811105299      -0.594327916109       1.306068273794
H         1.139807068089      -1.117680614555       1.232354785280
H         1.684062481591      -1.738353380518      -0.378310894546
H         1.621066203429       0.523623155362      -1.337192399830
H         0.555168357517       2.383161553639      -0.123441365293
H         0.385768811912       1.357077432397       1.368373518396
