14

O        -0.653902729290      -1.381894245620      -0.259641929671
C        -1.645738736308       0.753939931898      -0.314124258609
C        -1.388824995665      -0.485276979462       0.251202916918
C         1.444199340865      -0.867728486448       0.205541208681
C         1.462525280371       0.414361145901      -0.313695739322
C         0.876083148486       1.466575145685       0.356150639328
H        -1.339728182210       0.957113029626      -1.335024225475
H        -2.329382580926       1.448094985650       0.164612926182
H        -1.817543278144      -0.667428119844       1.257078466008
H         1.226312617015      -1.037912693493       1.255390306743
H         1.836825740584      -1.713037027832      -0.346239436363
H         1.782874137959       0.555956778054      -1.342444428814
H         0.819692346404       2.458560066230      -0.074932192438
H         0.604352840126       1.374056953719       1.401563545148
