14

O        -0.570867518787      -1.359987573686      -0.250883578901
C        -1.525511120892       0.782604279569      -0.297212077583
C        -1.325659798699      -0.464913993838       0.260810475075
C         1.335918202260      -0.898530245934       0.186606762604
C         1.404117084111       0.402036843770      -0.308758821796
C         0.753667744546       1.432837143705       0.333542291798
H        -1.262137254663       0.962132708888      -1.331688567642
H        -2.197888574278       1.491332595695       0.176397477855
H        -1.721712383443      -0.637328035953       1.277250739802
H         1.190692685105      -1.070758308048       1.245905092023
H         1.773923222175      -1.723461408350      -0.359445330909
H         1.716247341388       0.542642933416      -1.340281828644
H         0.710770703921       2.427513619869      -0.094906557732
H         0.514347652038       1.367065386116       1.387897063545
