14

O        -0.428521443639      -1.322433278942      -0.235869263296
C        -1.319406637323       0.831743161292      -0.268219767252
C        -1.217376603902      -0.430006018485       0.277280574774
C         1.150293393221      -0.951333262197       0.154147712187
C         1.303988747666       0.380909468689      -0.300295534611
C         0.543812766363       1.375000568884       0.294785124605
H        -1.129124236011       0.970737873337      -1.325970297073
H        -1.972470277166       1.565454212915       0.196599566436
H        -1.557430849670      -0.585727892141       1.311831780593
H         1.129629944686      -1.127065075857       1.229644723931
H         1.666090333474      -1.741331774951      -0.382084007274
H         1.602029975837       0.519819199751      -1.336574514068
H         0.524047888236       2.374291140393      -0.129148326805
H         0.360053043887       1.355079841653       1.364468809366
