14

O        -0.642040556361      -1.378764721058      -0.258390736704
C        -1.628563362677       0.758034838708      -0.311708232748
C        -1.379801396098      -0.482367981515       0.252575425226
C         1.428730606779      -0.872128737803       0.202836287813
C         1.454181252334       0.412600531311      -0.312990465389
C         0.858595233637       1.461755431116       0.352920875395
H        -1.328643763989       0.957830126663      -1.334547702927
H        -2.310597722834       1.454271787085       0.166296433564
H        -1.803853150330      -0.663128107859       1.259960219407
H         1.221224055314      -1.042604924143       1.254035276069
H         1.827839666526      -1.714526225049      -0.348125992726
H         1.773356024163       0.554054800249      -1.342135485932
H         0.804132111764       2.454124859607      -0.077785673195
H         0.591494956113       1.373058158347       1.399611190634
