14

O        -0.464107962426      -1.331821852628      -0.239622842197
C        -1.370932758215       0.819458440861      -0.275467844835
C        -1.244447402601      -0.438733012323       0.273163049849
C         1.196699595481      -0.938132508131       0.162262474791
C         1.329020831777       0.386191312459      -0.302411356407
C         0.596276510909       1.389459712589       0.304474416403
H        -1.162377490674       0.968586582225      -1.327399864715
H        -2.028824851444       1.546923808610       0.191549044291
H        -1.598501233113      -0.598627928094       1.303186520395
H         1.144895629791      -1.112988383904       1.233709815954
H         1.693048555649      -1.736864183301      -0.376424338182
H         1.630584317225       0.525525133168      -1.337501342712
H         0.570728592158       2.387596760262      -0.120587884537
H         0.398626695925       1.358076227769       1.370325872911
