14

O        -0.559005345858      -1.356858049124      -0.249632385934
C        -1.508335747262       0.786699186380      -0.294796051722
C        -1.316636199133      -0.462004995892       0.262182983384
C         1.320449468173      -0.902930497290       0.183901841736
C         1.395773056074       0.400276229180      -0.308053547864
C         0.736179829697       1.428017429137       0.330312527866
H        -1.251052836442       0.962849805925      -1.331212045095
H        -2.179103716185       1.497509397130       0.178080985236
H        -1.708022255629      -0.633028023969       1.280132493202
H         1.185604123403      -1.075450538699       1.244550061349
H         1.764937148117      -1.724950605566      -0.361331887273
H         1.706729227592       0.540740955611      -1.339972885763
H         0.695210469281       2.423078413246      -0.097760038488
H         0.501489768025       1.366066590744       1.385944709030
